[Config ec700ex3]
description = Exercise 3: three wireless nodes
network = Ec700ex3
sim-time-limit = 25s
record-eventlog = true

*.visualizer.mediumVisualizer.displaySignals = true
*.visualizer.physicalLinkVisualizer.displayLinks = true
*.visualizer.physicalLinkVisualizer.packetFilter = ""
*.visualizer.dataLinkVisualizer.packetFilter = ""

*.Host*.networkLayer.arpType = "GlobalARP"

*.Host*.wlan[0].typename = "IdealWirelessNic" 
*.Host*.wlan[0].mac.useAck = false
*.Host*.wlan[0].mac.fullDuplex = false

*.HostAlice.numUdpApps = 1
*.HostAlice.udpApp[0].typename = "UDPBasicApp"
*.HostAlice.udpApp[0].destAddresses = "HostBob"
*.HostAlice.udpApp[0].destPort = 5000
*.HostAlice.udpApp[0].messageLength = 1000B
*.HostAlice.udpApp[0].sendInterval = exponential(30ms)
*.HostAlice.udpApp[0].packetName = "UDPData"

*.HostBob.numUdpApps = 1
*.HostBob.udpApp[0].typename = "UDPSink"
*.HostBob.udpApp[0].localPort = 5000

*.HostCharlie.numUdpApps = 1
*.HostCharlie.udpApp[0].typename = "UDPBasicApp"
*.HostCharlie.udpApp[0].destAddresses = "HostBob"
*.HostCharlie.udpApp[0].destPort = 5000
*.HostCharlie.udpApp[0].messageLength = 1000B
*.HostCharlie.udpApp[0].sendInterval = exponential(30ms)
*.HostCharlie.udpApp[0].packetName = "UDPData"

*.Host*.**.bitrate = 1Mbps