[General]
network = HelloNetwork
sim-time-limit = 10s
record-eventlog = true
