[Config ec700ex4]
description = Exercise 4: an adversarial third node
network = Ec700ex4
sim-time-limit = 25s
record-eventlog = true

*.visualizer.mediumVisualizer.displaySignals = true
*.visualizer.physicalLinkVisualizer.displayLinks = true
*.visualizer.physicalLinkVisualizer.packetFilter = ""
*.visualizer.dataLinkVisualizer.packetFilter = ""

*.Host*.networkLayer.arpType = "GlobalARP"

*.Host*.wlan[0].typename = "WirelessNic"
*.Host*.wlan[0].radioType = "IdealRadio"
*.Host*.wlan[0].macType = "CsmaCaMac"
*.Host*.wlan[0].mac.useAck = true
*.Host*.wlan[0].radio.transmitter.communicationRange = 300m
*.Host*.wlan[0].radio.transmitter.interferenceRange = 500m
*.Host*.wlan[0].radio.receiver.ignoreInterference = false
*.Host*.wlan[0].radio.displayCommunicationRange = true
*.Host*.wlan[0].radio.displayInterferenceRange = true

*.HostAlice.numUdpApps = 1
*.HostAlice.udpApp[0].typename = "UDPBasicApp"
*.HostAlice.udpApp[0].destAddresses = "HostBob"
*.HostAlice.udpApp[0].destPort = 5000
*.HostAlice.udpApp[0].messageLength = 1000B
*.HostAlice.udpApp[0].sendInterval = exponential(15ms)
*.HostAlice.udpApp[0].packetName = "UDPData"

*.HostBob.numUdpApps = 1
*.HostBob.udpApp[0].typename = "UDPSink"
*.HostBob.udpApp[0].localPort = 5000

*.HostEve.numUdpApps = 1
*.HostEve.udpApp[0].typename = "UDPBasicApp"
*.HostEve.udpApp[0].destAddresses = "HostBob"
*.HostEve.udpApp[0].destPort = 5000
*.HostEve.udpApp[0].messageLength = 1000B
*.HostEve.udpApp[0].sendInterval = exponential(1ms)
*.HostEve.udpApp[0].packetName = "UDPData"
*.HostEve.udpApp[0].startTime = 5s

*.Host*.**.bitrate = 1Mbps

[Config ec700ex4_MovingEve]
extends = ec700ex4

*.Host*.mobility.constraintAreaMinZ = 0m
*.Host*.mobility.constraintAreaMaxZ = 0m

*.HostEve.mobilityType = "RectangleMobility"
*.HostEve.mobility.constraintAreaMinX = 500m
*.HostEve.mobility.constraintAreaMinY = 170m
*.HostEve.mobility.constraintAreaMaxX = 650m
*.HostEve.mobility.constraintAreaMaxY = 170m
*.HostEve.mobility.startPos = 0
*.HostEve.mobility.speed = 4mps