[Config ec700ex4]
description = Exercise 4: an adversarial third node
network = Ec700ex4
sim-time-limit = 25s
record-eventlog = true

*.visualizer.mediumVisualizer.displaySignals = true
*.visualizer.physicalLinkVisualizer.displayLinks = true
*.visualizer.physicalLinkVisualizer.packetFilter = ""
*.visualizer.dataLinkVisualizer.packetFilter = ""

*.Host*.networkLayer.arpType = "GlobalARP"

*.Host*.wlan[0].typename = "WirelessNic"
*.Host*.wlan[0].radioType = "IdealRadio"
*.Host*.wlan[0].macType = "CsmaCaMac"
*.Host*.wlan[0].mac.useAck = true
*.Host*.wlan[0].radio.transmitter.communicationRange = 300m
*.Host*.wlan[0].radio.transmitter.interferenceRange = 500m
*.Host*.wlan[0].radio.receiver.ignoreInterference = false
*.Host*.wlan[0].radio.displayCommunicationRange = true
*.Host*.wlan[0].radio.displayInterferenceRange = true

*.HostAlice.numUdpApps = 1
*.HostAlice.udpApp[0].typename = "UDPBasicApp"
*.HostAlice.udpApp[0].destAddresses = "HostBob"
*.HostAlice.udpApp[0].destPort = 5000
*.HostAlice.udpApp[0].messageLength = 1000B
*.HostAlice.udpApp[0].sendInterval = exponential(15ms)
*.HostAlice.udpApp[0].packetName = "UDPData"

*.HostBob.numUdpApps = 1
*.HostBob.udpApp[0].typename = "UDPSink"
*.HostBob.udpApp[0].localPort = 5000

*.HostEve.numUdpApps = 1
*.HostEve.udpApp[0].typename = "UDPBasicApp"
*.HostEve.udpApp[0].destAddresses = "HostBob"
*.HostEve.udpApp[0].destPort = 5000
*.HostEve.udpApp[0].messageLength = 1000B
*.HostEve.udpApp[0].sendInterval = exponential(15ms)
*.HostEve.udpApp[0].packetName = "UDPJammingData"

*.Host*.**.bitrate = 1Mbps

[Config ec700ex4_AggressiveEve]
extends = ec700ex4

*.HostEve.udpApp[0].sendInterval = exponential(1ms)
*.HostEve.udpApp[0].startTime = 5s

[Config ec700ex4_MovingEve]
extends = ec700ex4_AggressiveEve

*.HostEve.mobilityType = "LinearMobility"
*.HostEve.mobility.speed = 4mps
*.HostEve.mobility.angle = 0deg

[Config SimpleHiddenNode]
extends = ec700ex4_AggressiveEve
sim-time-limit = 300s


*.HostAlice.udpApp[0].sendInterval = exponential(30ms)
*.HostEve.udpApp[0].sendInterval = exponential(12ms)

*.Host*.wlan[0].radio.transmitter.communicationRange = 300m
*.Host*.wlan[0].radio.transmitter.interferenceRange = 350m
*.HostEve.udpApp[0].startTime = 10s
*.HostEve.udpApp[0].stopTime = 20s